Circuit: * C:\Users\torica\git\LTs_repo\LPF_RC.asc

Direct Newton iteration for .op point succeeded.

Date: Thu Mar 16 14:50:43 2017
Total elapsed time: 0.038 seconds.

tnom = 27
temp = 27
method = modified trap
totiter = 7765
traniter = 7762
tranpoints = 3882
accept = 2418
rejected = 1464
matrix size = 3
fillins = 0
solver = Normal
Matrix Compiler1: 50 bytes object code size  0.0/0.0/[0.0]
Matrix Compiler2: 175 bytes object code size  0.0/0.1/[0.0]


