Circuit: * C:\Users\torica\git\LTs_repo\LPF_RC_step_f_sig.asc

Direct Newton iteration for .op point succeeded.
.step f_sig=0
.step f_sig=100
.step f_sig=200
.step f_sig=300
.step f_sig=400
.step f_sig=500
.step f_sig=600
.step f_sig=700
.step f_sig=800
.step f_sig=900
.step f_sig=1000

Date: Sat Mar 18 17:19:18 2017
Total elapsed time: 0.235 seconds.

tnom = 27
temp = 27
method = modified trap
totiter = 8269
traniter = 8266
tranpoints = 4134
accept = 2669
rejected = 1465
matrix size = 3
fillins = 0
solver = Normal
Matrix Compiler1:       3 opcodes  0.0/[0.0]/0.0
Matrix Compiler2: off  [0.0]/0.0/0.1


